ptech18/ieee_tn/m1/Sub_Xfmr_z.dss
New Transformer.reg1  phases=3  windings=2  buses=(Sourcebus, tempr0)  conns=(delta wye)  sub=y subname=M1
~ kvs=(67, 12.47)  kvas=(16800 16800)  xhl=8  sub=y  subname=M1 mintap=0.95 maxtap=1.05
~ wdg=1  %r=.2
~ wdg=2  %r=.2

new line.reg1 bus1=tempr0 bus2=temp phases=3 switch=True

New Regcontrol.reg1  transformer=reg1  winding=2  
~ vreg=122.0  band=3.0 ptratio=60 bus=temp enabled=True delay=15 tapdelay=45 !maxtapchange=2
